# ================================================================
# Orca input file made in Gabedit
# ================================================================
! RKS  TightSCF mPW1PW  
! PMODEL  6-311G(2d,2p) 
%output
     Print[ P_Hirshfeld] 1
 end #output
* xyz 0   1
O -0.046153000 -0.751257000 0.000000000
C -0.046153000 0.658469000 0.000000000
H 0.857779000 -1.062372000 0.000000000
H -1.086394000 0.976180000 0.000000000
H 0.437376000 1.072716000 0.889654000
H 0.437376000 1.072716000 -0.889654000
*


