# ================================================================
# Orca input file made in Gabedit
# ================================================================
! RKS   TightSCF  mPW1PW 
! PrintBasis  PMODEL  6-311G(2df,2pd) 
%output
     Print[ P_Hirshfeld] 1
 end #output
!PAL4
* xyz -1   1
 C  -6.030030 0.906370 -0.433280
 C  -4.602670 0.896510 0.142080
 H  -6.694960 0.292520 0.178550
 H  -6.034580 0.515620 -1.453410
 H  -6.422190 1.925420 -0.452440
 C  -4.031080 -0.535000 0.183640
 H  -4.613890 1.312460 1.152030
 H  -3.962910 1.536630 -0.468680
 H  -4.702990 -1.179860 0.753740
 O  -2.754400 -0.529810 0.857100
 H  -3.911670 -0.941500 -0.825060
 S  -1.452620 -0.420340 -0.032960
 O  -0.474630 0.080290 1.111800
 O  -1.083700 -1.753140 -0.417460
 O  -1.600940 0.599150 -1.033350
*
